HydroDyn\HydroCalc.f90
FAST.f90
FAST_Mods.f90
FAST_IO.f90